// Stage selector:
//   1 = prescribed arclength-consistent kinematics through a penalty body force
//   2 = active strain / time-varying stress-free reference
SWIMMER_STAGE = 1

MESH_FILENAME = "fish2d.msh"
REFERENCE_TANGENT_X = 1.0
REFERENCE_TANGENT_Y = 0.0

// Shared travelling wave
WAVE_FREQUENCY = 1.0
WAVE_COUNT = 1.0
WAVE_PHASE0 = 0.0
WAVE_RAMP_TIME = 2.0

// Stage 1
PRESCRIBED_HEAD_AMPLITUDE_OVER_L = 0.0
PRESCRIBED_TAIL_AMPLITUDE_OVER_L = 0.08
PRESCRIBED_ENVELOPE_POWER = 2.0

// Stage 2: L*kappa_0 = ACTIVE_CURVATURE_TAIL_TIMES_L*(s/L)^p*sin(ks-omega*t)
ACTIVE_CURVATURE_TAIL_TIMES_L = 5.0
ACTIVE_ENVELOPE_POWER = 2.0
ACTIVE_STRETCH_MIN = 0.65
ACTIVE_STRETCH_MAX = 1.35

// Passive material evaluated with F in Stage 1 and Fe=F*Fa^{-1} in Stage 2
PASSIVE_MU = 0.5
PASSIVE_LAMBDA = 40.0
PASSIVE_FIBER_MODULUS = 0.5
PASSIVE_SHEAR_MODULUS = 0.25
PK1_QUAD_ORDER = "FIFTH"

// Fluid and Cartesian grid
RHO = 1.0
MU = 0.001
DOMAIN_LENGTH_X = 8.0
DOMAIN_LENGTH_Y = 4.0
NX = 128
NY = 64
MAX_LEVELS = 3
REF_RATIO = 4
NFINEST_X = (REF_RATIO^(MAX_LEVELS - 1))*NX
DX = DOMAIN_LENGTH_X/NFINEST_X

SOLVER_TYPE = "STAGGERED"
CFL_MAX = 0.15
DT = 2.5e-4
START_TIME = 0.0
END_TIME = 4.0
GROW_DT = 1.0
NUM_CYCLES = 1
ERROR_ON_DT_CHANGE = FALSE

// ex5 penalty scaling. These coefficients are used only when SWIMMER_STAGE=1.
PENALTY_STIFFNESS = 2.5*DX/DT^2
PENALTY_DAMPING = 1.5*DX/DT

USE_IB_DELTA_FUNCTIONS = TRUE
IB_DELTA_FUNCTION = "IB_4"
SPLIT_FORCES = FALSE
USE_JUMP_CONDITIONS = FALSE
USE_CONSISTENT_MASS_MATRIX = TRUE
IB_POINT_DENSITY = 3.0
ELIMINATE_PRESSURE_JUMPS = FALSE

CONVECTIVE_TS_TYPE = "ADAMS_BASHFORTH"
CONVECTIVE_OP_TYPE = "PPM"
CONVECTIVE_FORM = "ADVECTIVE"
NORMALIZE_PRESSURE = TRUE
VORTICITY_TAGGING = TRUE
TAG_BUFFER = 2
REGRID_CFL_INTERVAL = 0.25
ENABLE_LOGGING = TRUE

OUTPUT_U = TRUE
OUTPUT_P = TRUE
OUTPUT_F = TRUE
OUTPUT_OMEGA = TRUE
OUTPUT_DIV_U = TRUE

PROJECTION_METHOD_TYPE = "PRESSURE_UPDATE"
SECOND_ORDER_PRESSURE_UPDATE = TRUE

VelocityBcCoefs_0 {
   acoef_function_0 = "1.0"
   acoef_function_1 = "0.0"
   acoef_function_2 = "0.0"
   acoef_function_3 = "0.0"

   bcoef_function_0 = "0.0"
   bcoef_function_1 = "1.0"
   bcoef_function_2 = "1.0"
   bcoef_function_3 = "1.0"

   gcoef_function_0 = "0.0"
   gcoef_function_1 = "0.0"
   gcoef_function_2 = "0.0"
   gcoef_function_3 = "0.0"
}

VelocityBcCoefs_1 {
   acoef_function_0 = "1.0"
   acoef_function_1 = "0.0"
   acoef_function_2 = "1.0"
   acoef_function_3 = "1.0"

   bcoef_function_0 = "0.0"
   bcoef_function_1 = "1.0"
   bcoef_function_2 = "0.0"
   bcoef_function_3 = "0.0"

   gcoef_function_0 = "0.0"
   gcoef_function_1 = "0.0"
   gcoef_function_2 = "0.0"
   gcoef_function_3 = "0.0"
}

IBHierarchyIntegrator {
   start_time = START_TIME
   end_time = END_TIME
   grow_dt = GROW_DT
   num_cycles = NUM_CYCLES
   regrid_cfl_interval = REGRID_CFL_INTERVAL
   dt_max = DT
   error_on_dt_change = ERROR_ON_DT_CHANGE
   enable_logging = ENABLE_LOGGING
}

IBFEMethod {
   use_IB_spread_operator = USE_IB_DELTA_FUNCTIONS
   use_IB_interp_operator = USE_IB_DELTA_FUNCTIONS
   IB_delta_fcn = IB_DELTA_FUNCTION
   split_forces = SPLIT_FORCES
   use_jump_conditions = USE_JUMP_CONDITIONS
   use_consistent_mass_matrix = USE_CONSISTENT_MASS_MATRIX
   IB_point_density = IB_POINT_DENSITY
   patch_association_cfl = 0.10
}

INSCollocatedHierarchyIntegrator {
   mu = MU
   rho = RHO
   start_time = START_TIME
   end_time = END_TIME
   grow_dt = GROW_DT
   convective_time_stepping_type = CONVECTIVE_TS_TYPE
   convective_op_type = CONVECTIVE_OP_TYPE
   convective_difference_form = CONVECTIVE_FORM
   normalize_pressure = NORMALIZE_PRESSURE
   cfl = CFL_MAX
   dt_max = DT
   using_vorticity_tagging = VORTICITY_TAGGING
   vorticity_rel_thresh = 0.10,0.05
   tag_buffer = TAG_BUFFER
   output_U = OUTPUT_U
   output_P = OUTPUT_P
   output_F = OUTPUT_F
   output_Omega = OUTPUT_OMEGA
   output_Div_U = OUTPUT_DIV_U
   enable_logging = ENABLE_LOGGING
   projection_method_type = PROJECTION_METHOD_TYPE
   use_2nd_order_pressure_update = SECOND_ORDER_PRESSURE_UPDATE
}

INSStaggeredHierarchyIntegrator {
   mu = MU
   rho = RHO
   start_time = START_TIME
   end_time = END_TIME
   grow_dt = GROW_DT
   convective_time_stepping_type = CONVECTIVE_TS_TYPE
   convective_op_type = CONVECTIVE_OP_TYPE
   convective_difference_form = CONVECTIVE_FORM
   normalize_pressure = NORMALIZE_PRESSURE
   cfl = CFL_MAX
   dt_max = DT
   using_vorticity_tagging = VORTICITY_TAGGING
   vorticity_rel_thresh = 0.10,0.05
   tag_buffer = TAG_BUFFER
   output_U = OUTPUT_U
   output_P = OUTPUT_P
   output_F = OUTPUT_F
   output_Omega = OUTPUT_OMEGA
   output_Div_U = OUTPUT_DIV_U
   enable_logging = ENABLE_LOGGING
}

Main {
   solver_type = SOLVER_TYPE
   log_file_name = "IB2d.log"
   log_all_nodes = FALSE

   viz_writer = "VisIt","ExodusII"
   viz_dump_interval = 200
   viz_dump_dirname = "viz_IB2d"
   visit_number_procs_per_file = 1

   restart_dump_interval = 0
   restart_dump_dirname = "restart_IB2d"

   data_dump_interval = 20
   data_dump_dirname = "diagnostics"

   timer_dump_interval = 0
}

DIAGNOSTICS_FILENAME = "fish_diagnostics.csv"

CartesianGeometry {
   domain_boxes = [ (0,0),(NX - 1,NY - 1) ]
   x_lo = -1.5,-0.5*DOMAIN_LENGTH_Y
   x_up = -1.5+DOMAIN_LENGTH_X,0.5*DOMAIN_LENGTH_Y
   periodic_dimension = 0,0
}

GriddingAlgorithm {
   max_levels = MAX_LEVELS
   ratio_to_coarser {
      level_1 = REF_RATIO,REF_RATIO
      level_2 = REF_RATIO,REF_RATIO
      level_3 = REF_RATIO,REF_RATIO
      level_4 = REF_RATIO,REF_RATIO
   }
   largest_patch_size {
      level_0 = 512,512
   }
   smallest_patch_size {
      level_0 = 8,8
   }
   efficiency_tolerance = 0.85
   combine_efficiency = 0.85
}

StandardTagAndInitialize {
   tagging_method = "GRADIENT_DETECTOR"
}

LoadBalancer {
   bin_pack_method = "SPATIAL"
   max_workload_factor = 1
}

TimerManager {
   print_exclusive = FALSE
   print_total = TRUE
   print_threshold = 0.1
   timer_list = "IBAMR::*::*","IBTK::*::*","*::*::*"
}
